Version 4
SHEET 1 2800 1584
WIRE 336 272 -96 272
WIRE 512 272 448 272
WIRE 48 304 16 304
WIRE 336 304 128 304
WIRE 496 304 448 304
WIRE 592 304 560 304
WIRE 688 304 592 304
WIRE -96 336 -96 272
WIRE 16 400 16 304
WIRE 592 416 592 384
FLAG -96 416 0
FLAG 512 272 VB_tb
IOPIN 512 272 Out
FLAG 688 304 VE_tb
IOPIN 688 304 Out
FLAG 16 400 0
FLAG 592 416 0
SYMBOL voltage -96 320 R0
SYMATTR InstName VCC
SYMATTR Value 10
SYMBOL CED_pnp_Q3 736 32 R0
SYMATTR InstName CED_Q3
SYMBOL Voltage 592 288 R0
WINDOW 39 24 118 Left 2
SYMATTR SpiceLine Rser=50
SYMATTR InstName V1
SYMATTR Value SINE(0 0.001 300k)
SYMATTR Value2 AC 1
SYMBOL Res 144 288 R90
WINDOW 0 0 56 VBottom 2
WINDOW 3 32 56 VTop 2
SYMATTR InstName R1
SYMATTR Value 4.2k
SYMBOL Cap 560 288 R90
WINDOW 0 0 32 VBottom 2
WINDOW 3 32 32 VTop 2
SYMATTR InstName C2
SYMATTR Value 0.1”
SYMBOL EF_NPN_Q4 384 288 R0
SYMATTR InstName X1
TEXT 184 672 Left 2 !.ac dec 1k 10 10Meg
