Version 4
SHEET 1 2800 1584
WIRE 288 240 224 240
WIRE 112 256 -96 256
WIRE 288 272 224 272
WIRE 112 288 16 288
WIRE 16 304 16 288
WIRE 288 304 224 304
WIRE -96 336 -96 256
WIRE 16 448 16 384
FLAG -96 416 0
FLAG 16 528 0
FLAG 288 304 VC
IOPIN 288 304 Out
FLAG 288 240 VE
IOPIN 288 240 Out
FLAG 288 272 VB
IOPIN 288 272 Out
SYMBOL voltage -96 320 R0
SYMATTR InstName VCC
SYMATTR Value 10
SYMBOL voltage 16 432 R0
WINDOW 123 24 118 Left 2
WINDOW 39 24 140 Left 2
SYMATTR Value2 AC 1
SYMATTR SpiceLine Rser=50
SYMATTR InstName Vi
SYMATTR Value SINE(0 0.005 100k)
SYMBOL Res 32 400 R180
WINDOW 0 36 76 Left 2
WINDOW 3 36 40 Left 2
SYMATTR InstName R1
SYMATTR Value 500
SYMBOL CE_pnp_Q2 160 272 R0
SYMATTR InstName X1
TEXT 288 496 Left 2 !.ac dec 1k 10 100Meg
