Version 4
SHEET 1 2800 1584
WIRE 112 256 -96 256
WIRE 112 288 16 288
WIRE 368 288 224 288
WIRE 16 320 16 288
WIRE -96 336 -96 256
WIRE 16 448 16 400
FLAG -96 416 0
FLAG 16 528 0
FLAG 704 272 VB_Q2
IOPIN 704 272 Out
FLAG 704 304 VC_Q2
IOPIN 704 304 Out
FLAG 704 336 VE_Q2
IOPIN 704 336 Out
FLAG 992 256 VB_Q3
IOPIN 992 256 Out
FLAG 992 288 VC_Q3
IOPIN 992 288 Out
FLAG 992 320 VE_Q3
IOPIN 992 320 Out
FLAG 1312 256 VB_Q4
IOPIN 1312 256 Out
FLAG 1312 288 Vo_Q4
IOPIN 1312 288 Out
FLAG 224 256 VB_Q1
IOPIN 224 256 Out
FLAG 224 288 Vo_Q1
IOPIN 224 288 Out
FLAG 368 368 0
SYMBOL voltage -96 320 R0
SYMATTR InstName VCC
SYMATTR Value 10
SYMBOL voltage 16 432 R0
WINDOW 123 24 118 Left 2
WINDOW 39 24 140 Left 2
SYMATTR Value2 AC 0.3
SYMATTR SpiceLine Rser=50
SYMATTR InstName Vi
SYMATTR Value SINE(0 0.005 10k)
SYMBOL CE_pnp_Q2 640 304 R0
SYMATTR InstName CE_Q2
SYMBOL CED_pnp_Q3 928 288 R0
SYMATTR InstName CED_Q3
SYMBOL EF_NPN_Q1 160 272 R0
SYMATTR InstName EF_Q1
SYMBOL EF_NPN_Q4 1248 272 R0
SYMATTR InstName EF_Q4
SYMBOL Res 0 304 R0
SYMATTR InstName Rsense
SYMATTR Value 15k
SYMBOL Res 352 272 R0
SYMATTR InstName R1
SYMATTR Value 1.5k
TEXT 288 448 Left 2 ;.op
TEXT 288 496 Left 2 !.ac dec 1k 10 100Meg
TEXT 288 544 Left 2 ;.TRAN 0.5m
